*HEADING
Synthetic keyword-check fixture only; NOT solver-ready (see examples/synthetic_minimal)
*NODE
1, 0., 0., 0.
2, 1., 0., 0.
3, 1., 1., 0.
4, 0., 1., 0.
5, 0., 0., 1.
6, 1., 0., 1.
7, 1., 1., 1.
8, 0., 1., 1.
*ELEMENT, TYPE=C3D8, ELSET=ALL
1, 1, 2, 3, 4, 5, 6, 7, 8
*MATERIAL, NAME=SYNTHETIC
*ELASTIC
1.0, 0.3
*SOLID SECTION, ELSET=ALL, MATERIAL=SYNTHETIC
*BOUNDARY
1, 1, 3, 0.0
*STEP, NAME=SMOKE
*STATIC
0.1, 1.0
*OUTPUT, FIELD
*ELEMENT OUTPUT
S, LE, PEEQ
*END STEP
